*EXP.DETAILS: SDBV1501TM 

*GENERAL

*TREATMENTS                        -------------FACTOR LEVELS------------
@N R O C TNAME.................... CU FL SA IC MP MI MF MR MC MT ME MH SM
 1 1 1 0 SDBV1501_2006              1  1  0  0  1  0  0  0  0  0  0  0  1
 2 1 1 0 SDBV1501_2007              1  1  0  0  2  0  0  0  0  0  0  0  1
 3 1 1 0 SDBV1501_2008              1  1  0  0  3  0  0  0  0  0  0  0  1
 4 1 1 0 SDBV1501_2009              1  1  0  0  4  0  0  0  0  0  0  0  1
 5 1 1 0 SDBV1501_2010              1  1  0  0  5  0  0  0  0  0  0  0  1
 6 1 1 0 SDBV1501_2011              1  1  0  0  6  0  0  0  0  0  0  0  1
 7 1 1 0 SDBV1501_2012              1  1  0  0  7  0  0  0  0  0  0  0  1
 8 1 1 0 SDBV1501_2013              1  1  0  0  8  0  0  0  0  0  0  0  1
 9 1 1 0 SDBV1501_2014              1  1  0  0  9  0  0  0  0  0  0  0  1
10 1 1 0 SDBV1501_2015              1  1  0  0 10  0  0  0  0  0  0  0  1

*CULTIVARS
@C CR INGENO CNAME
 1 TM TM0007 -99

*FIELDS
@L ID_FIELD WSTA....  FLSA  FLOB  FLDT  FLDD  FLDS  FLST SLTX  SLDP  ID_SOIL    FLNAME
 1 -99      SDBV1501   -99   -99 -99     -99   -99 -99   -99    -99  FL00101098 -99
@L ...........XCRD ...........YCRD .....ELEV .............AREA .SLEN .FLWR .SLAS FLHST FHDUR
 1 -82.35410308838 29.676599502564       -99               -99   -99   -99   -99   -99   -99

*PLANTING DETAILS
@P PDATE EDATE  PPOP  PPOE  PLME  PLDS  PLRS  PLRD  PLDP  PLWT  PAGE  PENV  PLPH  SPRL                        PLNAME
 1 06131   -99   156   156     C   -99    8    -99    3    -99   -99   -99   -99   -99                        -99
 2 07131   -99   156   156     C   -99    8    -99    3    -99   -99   -99   -99   -99                        -99
 3 08132   -99   156   156     C   -99    8    -99    3    -99   -99   -99   -99   -99                        -99
 4 09131   -99   156   156     C   -99    8    -99    3    -99   -99   -99   -99   -99                        -99
 5 10131   -99   156   156     C   -99    8    -99    3    -99   -99   -99   -99   -99                        -99
 6 11131   -99   156   156     C   -99    8    -99    3    -99   -99   -99   -99   -99                        -99
 7 12132   -99   156   156     C   -99    8    -99    3    -99   -99   -99   -99   -99                        -99
 8 13131   -99   156   156     C   -99    8    -99    3    -99   -99   -99   -99   -99                        -99
 9 14131   -99   156   156     C   -99    8    -99    3    -99   -99   -99   -99   -99                        -99
10 15131   -99   156   156     C   -99    8    -99    3    -99   -99   -99   -99   -99                        -99

*SIMULATION CONTROLS
@N GENERAL     NYERS NREPS START SDATE RSEED SNAME.................... SMODEL
 1 GE              1     1     S   -99  2150 DEFAULT SIMULATION CONTRL 
@N OPTIONS     WATER NITRO SYMBI PHOSP POTAS DISES  CHEM  TILL   CO2
 1 OP              Y     Y     Y     N     N     N     N     Y     M
@N METHODS     WTHER INCON LIGHT EVAPO INFIL PHOTO HYDRO NSWIT MESOM MESEV MESOL
 1 ME              M     M     E     R     S     L     R     1     P     S     2
@N MANAGEMENT  PLANT IRRIG FERTI RESID HARVS
 1 MA              R     R     R     R     M
@N OUTPUTS     FNAME OVVEW SUMRY FROPT GROUT CAOUT WAOUT NIOUT MIOUT DIOUT VBOSE CHOUT OPOUT
 1 OU              N     Y     Y     1     Y     Y     N     N     N     N     N     N     N

@  AUTOMATIC MANAGEMENT
@N PLANTING    PFRST PLAST PH2OL PH2OU PH2OD PSTMX PSTMN
 1 PL          82050 82064    40   100    30    40    10
@N IRRIGATION  IMDEP ITHRL ITHRU IROFF IMETH IRAMT IREFF
 1 IR             30    50   100 GS000 IR001    10  1.00
@N NITROGEN    NMDEP NMTHR NAMNT NCODE NAOFF
 1 NI             30    50    25 FE001 GS000
@N RESIDUES    RIPCN RTIME RIDEP
 1 RE            100     1    20
@N HARVEST     HFRST HLAST HPCNP HPCNR
 1 HA              0 83057   100     0

